# Wallula Reactive Model
# Katie Muller
# 10/02/24

SIMULATION
  SIMULATION_TYPE SUBSURFACE
  PROCESS_MODELS
    SUBSURFACE_FLOW flow
      MODE SCO2
      OPTIONS
        NO_STATE_TRANSITION_OUTPUT
        ISOTHERMAL_TEMPERATURE 25.d0
      /
    /
    SUBSURFACE_TRANSPORT
     MODE GIRT
    /
    WELL_MODEL well_1
      OPTIONS
        FLOW_COUPLING FULLY_IMPLICIT
        TYPE HYDROSTATIC
      END
    END
  /

END

SUBSURFACE

ISOTHERMAL
CO2_DATABASE /home/mull128/software/pflotran/database/co2data0.dat


NUMERICAL_METHODS flow

  NEWTON_SOLVER
    USE_INFINITY_NORM_CONVERGENCE
    NUMERICAL_JACOBIAN
    MINIMUM_NEWTON_ITERATIONS 2
    #CENTRAL_DIFFERENCE_JACOBIAN
  END

  LINEAR_SOLVER
    #SOLVER DIRECT
  END

  TIMESTEPPER FLOW
    TIMESTEP_MAXIMUM_GROWTH_FACTOR 1.25
  END

END

NUMERICAL_METHODS TRANSPORT

  TIMESTEPPER
    TS_ACCELERATION 16
    !MAX_STEPS 10
  /

  NEWTON_SOLVER
    #ATOL 1D-8
    #RTOL 1D-6
    #STOL 1D-30
    #DTOL 1D4
    #ITOL 1D-8
    MAXIMUM_NUMBER_OF_ITERATIONS 100
    !MAXF 100
    !PRINT_DETAILED_CONVERGENCE
  /

END

WELLBORE_MODEL well_1
  # Uncommenting PRINT_WELL_FILE will create the .well file at each time step
  #PRINT_WELL_FILE

  # Note the SEGMENT_CENTER_Z_VALUES must be provided in ascending order!
  WELL_GRID
    NUMBER_OF_SEGMENTS 12
    WELL_TRAJECTORY
      # Must start from SURFACE_ORIGIN and proceed sequentially.
      # Will populate 1 well segment per reservoir cell occupied
      # Must specify if each segment is CASED or UNCASED
      SURFACE_ORIGIN 0.1d0 0.5d0 -632.79d0
      SEGMENT_DXYZ UNCASED 0.d0 0.d0 -150.85d0
    /
  /

  WELL
    DIAMETER 0.1588008d0
    FRICTION_COEFFICIENT 1.d0
    WELL_INDEX_MODEL PEACEMAN_3D
    SKIN_FACTOR 0.d0
  /

  USE_WELL_COUPLER

END

WELL_MODEL_OUTPUT
  WELL_LIQ_PRESSURE
  WELL_GAS_PRESSURE
  WELL_LIQ_Q
  WELL_GAS_Q
/
#noskip

#=========================== chemistry ========================================

CHEMISTRY
  PRIMARY_SPECIES
    Al+++
    Ca++
    Fe++
    K+
    Mg++
    Mn++
    Na+
    SiO2(aq)
    Ti(OH)4(aq)
    H+
    CO2(aq)
    Cl-          #Cl- is NOT included in STOMP problem - charge balance concern
    #O2(aq)  #O2 is NOT considered in STOMP problem - will likely need to overwrite database for Fe rxns to match. Check redox conditions too.
  /

  SECONDARY_SPECIES
    HCO3-
    OH-
    Al(OH)2+
    AlO2-
    AlOH++
    CO3--
    CaCO3(aq)
    CaHCO3+
    Fe(OH)3(aq)-kam
    Fe(OH)4--kam
    FeHCO3+
    HAlO2(aq)
    HSiO3-
    MgCO3(aq)
    MgHCO3+
    MnCO3(aq)
    MnHCO3+
    MnOH+
    NaHCO3(aq)
    NaHSiO3(aq)
  /

  ACTIVE_GAS_SPECIES
    GAS_TRANSPORT_IS_UNVETTED
    CO2(g)
    #O2(g)
  /
  PASSIVE_GAS_SPECIES
    CO2(g)
    #O2(g)
  /
  MINERALS
    Chalcedony-kam
        Anatase-kam
        #Dawsonite-kam
        Dawsonite-wrong-but-in-stomp
        Dolomite-kam
        Calcite-kam
        Rhodochrosite-kam
        Siderite-kam
    Beidellite-Ca-kam
    Beidellite-K-kam
    Beidellite-Mg-kam
        Plagioclase-kam
    Clinopyroxene-kam
    Glass-kam
    Magnetite-kam
  /
  MINERAL_KINETICS
        Chalcedony-kam
          PREFACTOR
      RATE_CONSTANT 5.888e-13 mol/m^2-sec
      ACTIVATION_ENERGY 6.280e+4 J/mol
          /
    /
        Anatase-kam
          PREFACTOR
      RATE_CONSTANT 4.47e-09 mol/m^2-sec
      ACTIVATION_ENERGY 3.79e+4 J/mol
          PREFACTOR_SPECIES H+
                ALPHA 0.421
          /
          /
        /
        #Dawsonite-kam
        Dawsonite-wrong-but-in-stomp
          PREFACTOR
      RATE_CONSTANT 1.0d-11 mol/cm^2-sec
      ACTIVATION_ENERGY 62.8 kJ/mol
          /
    /
        Dolomite-kam
          PREFACTOR
      #RATE_CONSTANT 1.74e-04 mol/m^2-sec
          RATE_CONSTANT 1.74e-24 mol/m^2-sec
      ACTIVATION_ENERGY 5.67e+4 J/mol
          PREFACTOR_SPECIES H+
                ALPHA 0.5
          /
          /
    /
        Calcite-kam
          PREFACTOR
      #RATE_CONSTANT 5.01e-01 mol/m^2-sec
          RATE_CONSTANT 5.01e-21 mol/m^2-sec
      ACTIVATION_ENERGY 1.440e+4 J/mol
          PREFACTOR_SPECIES H+
                ALPHA 1.0
          /
          /
    /
    Rhodochrosite-kam
          PREFACTOR
      #RATE_CONSTANT 1.02e-03 mol/m^2-sec
          RATE_CONSTANT 1.02e-23 mol/m^2-sec
      ACTIVATION_ENERGY 2.096e+4 J/mol
          PREFACTOR_SPECIES H+
                ALPHA 0.9
          /
          /
    /
        Siderite-kam
          PREFACTOR
      #RATE_CONSTANT 1.02e-03 mol/m^2-sec
          RATE_CONSTANT 1.02e-23 mol/m^2-sec
      ACTIVATION_ENERGY 2.096e+4 J/mol
          PREFACTOR_SPECIES H+
                ALPHA 0.9
          /
          /
    /
    Beidellite-Ca-kam
          PREFACTOR
      #RATE_CONSTANT 1.05e-11 mol/m^2-sec
          RATE_CONSTANT 1.05e-21 mol/m^2-sec
      ACTIVATION_ENERGY 2.36e+4 J/mol
          PREFACTOR_SPECIES H+
                ALPHA 0.34
          /
          /
    /
    Beidellite-K-kam
          PREFACTOR
      #RATE_CONSTANT 1.05e-11 mol/m^2-sec
          RATE_CONSTANT 1.05e-21 mol/m^2-sec
      ACTIVATION_ENERGY 2.36e+4 J/mol
          PREFACTOR_SPECIES H+
                ALPHA 0.34
          /
          /
    /
    Beidellite-Mg-kam
          PREFACTOR
      #RATE_CONSTANT 1.05e-11 mol/m^2-sec
          RATE_CONSTANT 1.05e-21 mol/m^2-sec
      ACTIVATION_ENERGY 23.6 kJ/mol
          PREFACTOR_SPECIES H+
                ALPHA 0.34
          /
          /
    /
    Plagioclase-kam #This causes simulator failure
          PREFACTOR
      #RATE_CONSTANT 8.03e-08 mol/m^2-sec
          RATE_CONSTANT 8.03e-28 mol/m^2-sec
      ACTIVATION_ENERGY 4.21e+4 J/mol
          PREFACTOR_SPECIES H+
                ALPHA 0.626
          /
          /
    /
    Clinopyroxene-kam # This causes simulator failure
          PREFACTOR
      #RATE_CONSTANT 4.13e-06 mol/m^2-sec
          RATE_CONSTANT 4.13e-26 mol/m^2-sec
      ACTIVATION_ENERGY 7.80e+4 J/mol
          PREFACTOR_SPECIES H+
                ALPHA 0.7
          /
          /
    /
    Glass-kam
          PREFACTOR
      #RATE_CONSTANT 7.17e-08 mol/m^2-sec
          RATE_CONSTANT 7.17e-28 mol/m^2-sec
      ACTIVATION_ENERGY 3.03e+4 J/mol
          PREFACTOR_SPECIES H+
                ALPHA 0.318
          /
          /
    /
    Magnetite-kam
          PREFACTOR
      RATE_CONSTANT 8.34e-11 mol/m^2-sec
      ACTIVATION_ENERGY 1.86e+4 J/mol
          PREFACTOR_SPECIES H+
                ALPHA 0.279
          /
          /
    /
  /


  DATABASE ./wallula.dat
  LOG_FORMULATION
  ACTIVITY_COEFFICIENTS TIMESTEP
  OUTPUT
    SECONDARY_SPECIES
    FREE_ION
    PH
    TOTAL
    ALL
    MINERALS
    MINERAL_SATURATION_INDEX
  /
END


#=========================== discretization ===================================
GRID
  TYPE STRUCTURED CYLINDRICAL
  ORIGIN 0.0d0 0.d0 -783.64d0
  NXYZ 78 1 40
  DXYZ
     0.23 0.04 0.05 0.06 0.07 \
	 0.08 0.09 0.11 0.13 0.16 \
	 0.18 0.21 0.26 0.30 0.35 \
	 0.42 0.49 0.58 0.69 0.81 \
	 0.95 1.13 1.33 1.57 1.85 \
	 2.19 2.58 3.04 3.59 4.24 \
	 4.23 6.10 7.53 4.96 12.94 \
	 11.44 10.44 15.24 22.53 22.18 \
	 26.16 30.88 36.44 42.99 50.73 \
	 59.86 70.64 83.35 98.36 116.06 \
	 136.95 161.6 190.69 225.02 265.52 \
	 313.31 369.71 436.26 514.75 607.44 \
	 716.78 845.8 998.05 1177.7 1389.68 \
	 1639.82 1934.99 2283.29 2694.28 3179.25 \
	 3751.52 4426.8 5223.6 6163.9 7273.36 \
	 8582.57 10127.4 13609.12 
     1@1.d0
	 9@3.05 5@2.74 1@3.35 1@3.66 6@2.74 \
	 5@3.66 1@3.96 6@2.74 1@3.35 1@4.88 \
	 1@6.10 1@9.75 1@11.58 1@11.89
  /
END

#=========================== fluid properties =================================
FLUID_PROPERTY
  PHASE LIQUID
  DIFFUSION_COEFFICIENT 2.d-9
END

FLUID_PROPERTY
  PHASE GAS
  DIFFUSION_COEFFICIENT 2.d-5
END

#=========================== more fluid properties ============================
EOS WATER
  DENSITY IF97
  ENTHALPY IF97
  STEAM_DENSITY IF97
  STEAM_ENTHALPY IF97
  SATURATION_PRESSURE IF97
END

EOS GAS
CO2_DATABASE co2_sw.dat

skip
  CO2_SPAN_WAGNER_DB
    PRESSURE_MIN 1.d6
    PRESSURE_MAX 1.d8
    PRESSURE_DELTA 1.d6
    TEMPERATURE_MIN 1.d0
    TEMPERATURE_MAX 1.d2
    TEMPERATURE_DELTA 1.d0
    DATABASE_FILE_NAME co2_sw.dat
  /
noskip
  HENRYS_CONSTANT DEFAULT
END


#=========================== material properties ==============================
MATERIAL_PROPERTY WWFI
  ID 1
  CHARACTERISTIC_CURVES SCFT
  POROSITY 0.01
  TORTUOSITY 1.d0
  ROCK_DENSITY 2650.d0 kg/m^3
  THERMAL_CONDUCTIVITY_DRY 2.d0 #W/m-C            # FLAG 
  THERMAL_CONDUCTIVITY_WET 2.18d0 #W/m-C          # FLAG 
  HEAT_CAPACITY 1000 J/kg-C					      # FLAG 
  PERMEABILITY
    PERM_X 6.6632653e-14 #m^2
    PERM_Y 6.6632653e-14 #m^2
    PERM_Z 6.6632653e-15 #m^2
  /
  SOIL_COMPRESSIBILITY_FUNCTION LINEAR
  POROSITY_COMPRESSIBILITY 1.3488504e-10
  SOIL_REFERENCE_PRESSURE 1.2d7
END

#=========================== characteristic curves ============================

CHARACTERISTIC_CURVES SCFT
  SATURATION_FUNCTION BROOKS_COREY
    MAX_TRAPPED_GAS_SAT 0.2
    UNSATURATED_EXTENSION
    #SMOOTH
    ALPHA 0.00018896447
    LAMBDA 4.033
    LIQUID_RESIDUAL_SATURATION 0.01
    MAX_CAPILLARY_PRESSURE 1.d9
    #SMOOTH
  /
  PERMEABILITY_FUNCTION BURDINE_BC_LIQ
    PHASE LIQUID
    LAMBDA 4.033
    LIQUID_RESIDUAL_SATURATION 0.01
  /
  PERMEABILITY_FUNCTION MODIFIED_COREY_GAS
    PHASE GAS
    LIQUID_RESIDUAL_SATURATION 0.01
    GAS_RESIDUAL_SATURATION 0.2
  /
END

#=========================== output options ===================================
OUTPUT
  SNAPSHOT_FILE
    TIMES d 14.d0
    #TIMES y 1.d-2 1.d-1 1.d0
    PERIODIC TIME 1 d
    FORMAT HDF5
  /
  #SNAPSHOT_FILE
  #  FORMAT TECPLOT BLOCK
  #  PERIODIC TIME 0.1 y
  #/
  UNFILTER_NON_STATE_VARIABLES

  VARIABLES
   TEMPERATURE
   LIQUID_PRESSURE
   GAS_PRESSURE
   LIQUID_SATURATION
   GAS_SATURATION
   PRECIPITATE_SATURATION
   TRAPPED_GAS_SATURATION
   LIQUID_MASS_FRACTIONS
   LIQUID_MOLE_FRACTIONS
   GAS_MASS_FRACTIONS
   LIQUID_DENSITY MOLAR
   GAS_DENSITY
   GAS_DENSITY MOLAR
   PERMEABILITY
   LIQUID_RELATIVE_PERMEABILITY
   GAS_RELATIVE_PERMEABILITY
   POROSITY
   VOLUME
  /
END

#=========================== times ============================================
TIME
  FINAL_TIME 1.d1 y
  INITIAL_TIMESTEP_SIZE 5.d-6 y
  MAXIMUM_TIMESTEP_SIZE 50.d0 d
END


#=========================== regions ==========================================
REGION all
  COORDINATES
    -1.d20 -1.d20 -1.d20
     1.d20  1.d20  1.d20
  /
END

REGION edge
  FACE EAST
  COORDINATES
    80000.d0 0.d0  -783.64d0
    80000.d0 1.d0  -632.76d0
  /
END

REGION injection
  COORDINATES
    0.01d0 0.d0  -783.64d0
    0.01d0 1.d0  -632.76d0
  /
END

#=========================== flow conditions ==================================

FLOW_CONDITION initial
  TYPE
    LIQUID_PRESSURE HYDROSTATIC
    CO2_MASS_FRACTION DIRICHLET
    SALT_MASS_FRACTION DIRICHLET
#    TEMPERATURE DIRICHLET
  /
  DATUM 0.d0 0.d0 -1087.526d0
skip
  GRADIENT
    TEMPERATURE 0.d0 0.d0 -0.26793525809
  /
noskip
  LIQUID_PRESSURE 1.0004d7
  CO2_MASS_FRACTION 0.d0 
  SALT_MASS_FRACTION 1.d-2
#  TEMPERATURE 102.11805556
END

FLOW_CONDITION injection
  SYNC_TIMESTEP_WITH_UPDATE
  TYPE
    RATE MASS_RATE
  /
  # 1.0e3 MT in 14 days
  RATE LIST
    TIME_UNITS d
    DATA_UNITS kg/d kg/d kg/d #MW
    #0.d0  0.d0 0.d0 0.d0 #0.d0
    0.d0  0.d0 71428.57d0 0.d0 #0.d0
    14.d0 0.d0 0.d0 0.d0 #0.d0
  /
END

#=========================== transport conditions =============================
TRANSPORT_CONDITION background_conc
  TYPE ZERO_GRADIENT
  CONSTRAINT_LIST
    0.d0 initial_constraint
  /
END

#=========================== constraints ======================================
CONSTRAINT initial_constraint
  CONCENTRATIONS
    Al+++         8.48d-6  T
    Ca++          2.7d-5   T
    Fe++          1.72d-5  M Magnetite-kam
    K+            6.01d-5  T
    Mg++          4.53d-6  T
    Mn++          2.57d-7  T
    Na+           4.03d-3  T
    SiO2(aq)      1.28d-3  M Plagioclase-kam
    Ti(OH)4(aq)   2.26d-10 T
    H+            9.68     P
    CO2(aq)       1.d-4    T
    Cl-           4.03d-3  Z
    #O2(aq)        1.d-20  T
  /
 MINERALS
   # vol frac m^3 mnrl/m^3 bulk, SSA m^2 mnrl/ m^3 bulk
   Chalcedony-kam 0.d0 2.65d05
   Anatase-kam 0.d0 4.24d05
   #Dawsonite-kam 0.d0 2.42d05
   Dawsonite-wrong-but-in-stomp 0.d0 2.42d05
   Dolomite-kam 0.d0 2.86d05
   Calcite-kam 0.d0 2.71d05
   Rhodochrosite-kam 0.d0 3.7d05
   Siderite-kam 0.d0 3.94d05
   Beidellite-Ca-kam 0.d0 2.83d05
   Beidellite-K-kam 0.d0 2.79d05
   Beidellite-Mg-kam 0.d0 2.95d05
   Plagioclase-kam 0.375d0 6.187d06
   Clinopyroxene-kam 0.191d0 3.033d06
   Glass-kam 0.425d0 5.83d06
   Magnetite-kam 0.01d0 6.24d06
 /
/

#=========================== condition couplers ===============================
# initial condition
INITIAL_CONDITION all
  FLOW_CONDITION initial
  TRANSPORT_CONDITION background_conc
  REGION all
END

#skip
WELL_COUPLER injection
  FLOW_CONDITION injection
  TRANSPORT_CONDITION background_conc
  WELL well1
END
#noskip

skip
SOURCE_SINK injection
  FLOW_CONDITION injection
  TRANSPORT_CONDITION background_conc
  REGION injection
END
noskip


BOUNDARY_CONDITION edge
  FLOW_CONDITION initial
  TRANSPORT_CONDITION background_conc
  REGION edge
END

#=========================== stratigraphy couplers ============================
STRATA
  REGION all
  MATERIAL SCFT
END

#=========================== convergence criteria  ============================
END_SUBSURFACE
