pcf
* control data
norestart  estimation
# Number of parameters, number of observations, number of parameter groups, number of prior information, number of observation groups
    2     319     1     0     1
# Number of pairs of input template files, number of model output reading instruction files, 
    1     1 single point   1   0   0
  5.0   2.0   0.3  0.03    10
  3.0   3.0 0.001  0
  0.1
   30  0.01     3     3  0.01     3
    1     1     1
* parameter groups
dgr         relative 0.01  0.0  switch  2.0 parabolic
* parameter data
glassrate          none  relative    7.17e-07      7.0e-8   7.0e-6 dgr             1.0000        0.0000      1
clinorate          none  relative    4.13e-05      4.0e-6   4.0e-4 dgr             1.0000        0.0000      1
* observation groups
obsgroup
* observation data
# Obs Name  Observation        Weight    Group
obs1   -6.29551674920661863410    0.0005911005157062902    obsgroup
obs2   -6.47010132349842059796    0.0005911005157062902    obsgroup
obs3   -7.93451346388226319561    0.0005911005157062902    obsgroup
obs4   -7.76056015675882537863    0.0005911005157062902    obsgroup
obs5   -10.62878161340387705991    0.00036989444139060967    obsgroup
obs6   -11.37599601523409731385    0.00036989444139060967    obsgroup
obs7   -11.69703244372547068508    0.00036989444139060967    obsgroup
obs8   -11.77908300093729465630    0.00036989444139060967    obsgroup
obs9   -4.87499773236170863555    0.0008672155415290115    obsgroup
obs10   -5.09732462376936190651    0.0008672155415290115    obsgroup
obs11   -4.75503841728272913514    0.0008672155415290115    obsgroup
obs12   -4.67165680834367869068    0.0008672155415290115    obsgroup
obs13   -4.65601965895776181981    0.000949873544920382    obsgroup
obs14   -4.56504788075203560282    0.000949873544920382    obsgroup
obs15   -4.26070692231361558555    0.000949873544920382    obsgroup
obs16   -4.22914045634578172894    0.000949873544920382    obsgroup
obs17   -6.93099875115485097865    0.000630042104169911    obsgroup
obs18   -7.05337346427840738983    0.000630042104169911    obsgroup
obs19   -6.32391147272683618041    0.000630042104169911    obsgroup
obs20   -6.39331200830422741177    0.000630042104169911    obsgroup
obs21   -2.93619543079297917743    0.0015171505809456229    obsgroup
obs22   -3.02171760423114088567    0.0015171505809456229    obsgroup
obs23   -2.51446980181303425539    0.0015171505809456229    obsgroup
obs24   -2.61625249612297672286    0.0015171505809456229    obsgroup
obs25   -6.03682466392816330369    0.0006951715748728371    obsgroup
obs26   -6.14533635559102364709    0.0006951715748728371    obsgroup
obs27   -6.01035252988618573511    0.0006951715748728371    obsgroup
obs28   -6.00745397713217421654    0.0006951715748728371    obsgroup
obs29   1.99605993274078485911    0.00210493639951168    obsgroup
obs30   1.99605993274078485911    0.00210493639951168    obsgroup
obs31   1.98787434815434549407    0.00210493639951168    obsgroup
obs32   2.01223279198638582699    0.00210493639951168    obsgroup
obs33   -5.68322166527576833062    0.0017620155622729517    obsgroup
obs34   -8.90078256556265934307    0.0017620155622729517    obsgroup
obs35   -8.60785801714602882839    0.0017620155622729517    obsgroup
obs36   -8.63367871676777198786    0.0017620155622729517    obsgroup
obs37   -10.22582591690113851257    0.001210767227099052    obsgroup
obs38   -11.86847250033189204999    0.001210767227099052    obsgroup
obs39   -11.97527705956195198667    0.001210767227099052    obsgroup
obs40   -12.24576673147335981184    0.001210767227099052    obsgroup
obs41   -5.20495528796172735042    0.0028684384037467848    obsgroup
obs42   -4.76085238714814895644    0.0028684384037467848    obsgroup
obs43   -4.79044034433364540604    0.0028684384037467848    obsgroup
obs44   -4.79344786539760026045    0.0028684384037467848    obsgroup
obs45   -5.29441632474629919614    0.003213306908243844    obsgroup
obs46   -4.12462775761029476485    0.003213306908243844    obsgroup
obs47   -4.11198536419511828655    0.003213306908243844    obsgroup
obs48   -3.92049325542895532593    0.003213306908243844    obsgroup
obs49   -7.48279181340906518471    0.0020579825451321862    obsgroup
obs50   -6.58300008091494515128    0.0020579825451321862    obsgroup
obs51   -6.41338990284075638471    0.0020579825451321862    obsgroup
obs52   -6.76939647201917260588    0.0020579825451321862    obsgroup
obs53   -3.57821326483031976196    0.005050731902272683    obsgroup
obs54   -2.55843292523415044570    0.005050731902272683    obsgroup
obs55   -2.45701274678824699294    0.005050731902272683    obsgroup
obs56   -2.50910785867164864982    0.005050731902272683    obsgroup
obs57   -6.21587289537714848819    0.002324436592361686    obsgroup
obs58   -5.98739599808757549937    0.002324436592361686    obsgroup
obs59   -5.94844809901319315770    0.002324436592361686    obsgroup
obs60   -5.97331125820583697106    0.002324436592361686    obsgroup
obs61   1.91692261218206105866    0.007055595398442434    obsgroup
obs62   2.02287119019144157051    0.007055595398442434    obsgroup
obs63   1.98787434815434549407    0.007055595398442434    obsgroup
obs64   2.02022218201986492048    0.007055595398442434    obsgroup
obs65   -5.96043243786025378483    0.0006460904200291654    obsgroup
obs66   -6.91026559050301614207    0.0006460904200291654    obsgroup
obs67   -9.76397480029432962567    0.0006460904200291654    obsgroup
obs68   -9.16039110359624864088    0.0006460904200291654    obsgroup
obs69   -7.78609345876398961650    0.0006460904200291654    obsgroup
obs70   -11.90310682079880422179    0.0006460904200291654    obsgroup
obs71   -5.46641393241064399433    0.0006460904200291654    obsgroup
obs72   -11.93263916836382065867    0.0006460904200291654    obsgroup
obs73   -8.85581673757996234997    0.0006460904200291654    obsgroup
obs74   -9.05537136149769317228    0.0006460904200291654    obsgroup
obs75   -10.43153440639324536221    0.00048398372925566514    obsgroup
obs76   -11.08119647501345284013    0.00048398372925566514    obsgroup
obs77   -12.00460467465647163010    0.00048398372925566514    obsgroup
obs78   -12.27263974972445659262    0.00048398372925566514    obsgroup
obs79   -12.24576673147335981184    0.00048398372925566514    obsgroup
obs80   -11.15730681426926729216    0.00048398372925566514    obsgroup
obs81   -10.05954522748147184075    0.00048398372925566514    obsgroup
obs82   -12.04406351139701847330    0.00048398372925566514    obsgroup
obs83   -12.26875624969805933517    0.00048398372925566514    obsgroup
obs84   -12.30025491675742976838    0.00048398372925566514    obsgroup
obs85   -6.45386206476692159129    0.0011083433132411007    obsgroup
obs86   -4.80862266341683586290    0.0011083433132411007    obsgroup
obs87   -4.79646445893702644270    0.0011083433132411007    obsgroup
obs88   -4.88815581693921963335    0.0011083433132411007    obsgroup
obs89   -4.96022816498034302413    0.0011083433132411007    obsgroup
obs90   -4.82093051109143289068    0.0011083433132411007    obsgroup
obs91   -5.33072467525076110206    0.0011083433132411007    obsgroup
obs92   -4.82093051109143289068    0.0011083433132411007    obsgroup
obs93   -4.89147256956521392368    0.0011083433132411007    obsgroup
obs94   -4.82403128876968079197    0.0011083433132411007    obsgroup
obs95   -7.19701577539680581452    0.0012074258873420716    obsgroup
obs96   -4.47803650376240547359    0.0012074258873420716    obsgroup
obs97   -4.12462775761029476485    0.0012074258873420716    obsgroup
obs98   -4.07498977651852278825    0.0012074258873420716    obsgroup
obs99   -4.08962418403696048586    0.0012074258873420716    obsgroup
obs100   -4.58904903285157850235    0.0012074258873420716    obsgroup
obs101   -5.71516151540524219854    0.0012074258873420716    obsgroup
obs102   -4.14519403519177132011    0.0012074258873420716    obsgroup
obs103   -4.07984415498332175787    0.0012074258873420716    obsgroup
obs104   -3.94996907356190884997    0.0012074258873420716    obsgroup
obs105   -8.86545640647837629444    0.0007936767072995877    obsgroup
obs106   -6.83141404572541421913    0.0007936767072995877    obsgroup
obs107   -6.66381326400990747771    0.0007936767072995877    obsgroup
obs108   -6.70055208965566517776    0.0007936767072995877    obsgroup
obs109   -6.98754140142854573980    0.0007936767072995877    obsgroup
obs110   -6.63809473472191857724    0.0007936767072995877    obsgroup
obs111   -7.75245538035816750266    0.0007936767072995877    obsgroup
obs112   -6.65781924006969738628    0.0007936767072995877    obsgroup
obs113   -6.70471876235051134074    0.0007936767072995877    obsgroup
obs114   -6.85297176680039399344    0.0007936767072995877    obsgroup
obs115   -8.86545640647837629444    0.0011123766792883155    obsgroup
obs116   -6.83141404572541421913    0.0011123766792883155    obsgroup
obs117   -6.66381326400990747771    0.0011123766792883155    obsgroup
obs118   -6.70055208965566517776    0.0011123766792883155    obsgroup
obs119   -6.98754140142854573980    0.0011123766792883155    obsgroup
obs120   -2.77737184526632807646    0.0011123766792883155    obsgroup
obs121   -4.03891450141374175331    0.0011123766792883155    obsgroup
obs122   -2.60441803847597386223    0.0011123766792883155    obsgroup
obs123   -2.41720649638782747459    0.0011123766792883155    obsgroup
obs124   -2.52528071791724961770    0.0011123766792883155    obsgroup
obs125   -6.89310462063119366860    0.0009164494454262239    obsgroup
obs126   -5.93624455773246406665    0.0009164494454262239    obsgroup
obs127   -5.95392006889118619029    0.0009164494454262239    obsgroup
obs128   -5.95529275270315849866    0.0009164494454262239    obsgroup
obs129   -6.06862143801016173938    0.0009164494454262239    obsgroup
obs130   -6.15200304694921307203    0.0009164494454262239    obsgroup
obs131   -6.25959570639097950817    0.0009164494454262239    obsgroup
obs132   -6.02940072485688016712    0.0009164494454262239    obsgroup
obs133   -5.92952861576702705548    0.0009164494454262239    obsgroup
obs134   -6.01180496296650090926    0.0009164494454262239    obsgroup
obs135   1.82293508669650483611    0.0028408391620320674    obsgroup
obs136   1.99333884262642424545    0.0028408391620320674    obsgroup
obs137   2.02419306744935756370    0.0028408391620320674    obsgroup
obs138   1.98650354602056689046    0.0028408391620320674    obsgroup
obs139   1.98924327376168719184    0.0028408391620320674    obsgroup
obs140   1.93874165957670085980    0.0028408391620320674    obsgroup
obs141   1.97129938306013285931    0.0028408391620320674    obsgroup
obs142   2.02419306744935756370    0.0028408391620320674    obsgroup
obs143   1.97962120639762506613    0.0028408391620320674    obsgroup
obs144   2.00955541421566952209    0.0028408391620320674    obsgroup
obs145   0.17846793360089205360    0.05607709845764875    obsgroup
obs146   0.00000000000000000002    0.05607709845764875    obsgroup
obs147   0.00000000000000000000    0.05607709845764875    obsgroup
obs148   0.33795334803083842967    0.05607709845764875    obsgroup
obs149   0.08927612478000823693    0.05607709845764875    obsgroup
obs150   0.39221142961859273290    0.05607709845764875    obsgroup
obs151   0.00000245986731470818    0.05607709845764875    obsgroup
obs152   0.00208116929528540150    0.05607709845764875    obsgroup
obs153   0.00000000000000000002    0.05607709845764875    obsgroup
obs154   0.00000753472299181487    0.05607709845764875    obsgroup
obs155   0.00000000008407672529    0.05607709845764875    obsgroup
obs156   0.00000000000000000000    0.05607709845764875    obsgroup
obs157   0.01290000000000000001    0.0006313394361877377    obsgroup
obs158   0.03359999999999999792    0.0006313394361877377    obsgroup
obs159   0.05600000000000000117    0.0006313394361877377    obsgroup
obs160   0.09049999999999999711    0.0006313394361877377    obsgroup
obs161   0.07240000000000000602    0.0006313394361877377    obsgroup
obs162   0.11382699999999999763    0.0006313394361877377    obsgroup
obs163   0.12848599999999998911    0.0006313394361877377    obsgroup
obs164   0.14228599999999999581    0.0006313394361877377    obsgroup
obs165   0.15608500000000000152    0.0006313394361877377    obsgroup
obs166   0.16902300000000000657    0.0006313394361877377    obsgroup
obs167   0.17937400000000000566    0.0006313394361877377    obsgroup
obs168   0.18715200000000001279    0.0006313394361877377    obsgroup
obs169   0.18631600000000000938    0.0006313394361877377    obsgroup
obs170   0.18461099999999999732    0.0006313394361877377    obsgroup
obs171   0.18462700000000001332    0.0006313394361877377    obsgroup
obs172   0.19757099999999999662    0.0006313394361877377    obsgroup
obs173   0.19241099999999999870    0.0006313394361877377    obsgroup
obs174   0.19331799999999998985    0.0006313394361877377    obsgroup
obs175   0.18471899999999999431    0.0006313394361877377    obsgroup
obs176   0.17956900000000000639    0.0006313394361877377    obsgroup
obs177   0.27009499999999997399    0.0006313394361877377    obsgroup
obs178   0.31492599999999998373    0.0006313394361877377    obsgroup
obs179   0.33045000000000002149    0.0006313394361877377    obsgroup
obs180   0.34081099999999997507    0.0006313394361877377    obsgroup
obs181   0.35290899999999997272    0.0006313394361877377    obsgroup
obs182   0.36586600000000002453    0.0006313394361877377    obsgroup
obs183   0.38229299999999999393    0.0006313394361877377    obsgroup
obs184   0.39440399999999997682    0.0006313394361877377    obsgroup
obs185   0.40479399999999998716    0.0006313394361877377    obsgroup
obs186   0.41173799999999999288    0.0006313394361877377    obsgroup
obs187   0.42127599999999998381    0.0006313394361877377    obsgroup
obs188   0.42994399999999999284    0.0006313394361877377    obsgroup
obs189   0.43172599999999999865    0.0006313394361877377    obsgroup
obs190   0.43351099999999997969    0.0006313394361877377    obsgroup
obs191   0.43614799999999998015    0.0006313394361877377    obsgroup
obs192   0.44222400000000000597    0.0006313394361877377    obsgroup
obs193   0.44744200000000000639    0.0006313394361877377    obsgroup
obs194   0.45265899999999997805    0.0006313394361877377    obsgroup
obs195   0.45699800000000001532    0.0006313394361877377    obsgroup
obs196   0.45961000000000001853    0.0006313394361877377    obsgroup
obs197   0.12513699999999999823    0.0006313394361877377    obsgroup
obs198   0.11566600000000000492    0.0006313394361877377    obsgroup
obs199   0.10964799999999999547    0.0006313394361877377    obsgroup
obs200   0.10708099999999999563    0.0006313394361877377    obsgroup
obs201   0.10622800000000000298    0.0006313394361877377    obsgroup
obs202   0.41745100000000001650    0.0006313394361877377    obsgroup
obs203   0.42952899999999999414    0.0006313394361877377    obsgroup
obs204   0.43815300000000001468    0.0006313394361877377    obsgroup
obs205   0.44334499999999998909    0.0006313394361877377    obsgroup
obs206   0.44940200000000002367    0.0006313394361877377    obsgroup
obs207   0.45632400000000000739    0.0006313394361877377    obsgroup
obs208   0.46410800000000002052    0.0006313394361877377    obsgroup
obs209   0.47017199999999997884    0.0006313394361877377    obsgroup
obs210   0.47536699999999998401    0.0006313394361877377    obsgroup
obs211   0.48230200000000000848    0.0006313394361877377    obsgroup
obs212   0.49010199999999998210    0.0006313394361877377    obsgroup
obs213   0.50051100000000003920    0.0006313394361877377    obsgroup
obs214   0.50831400000000004358    0.0006313394361877377    obsgroup
obs215   0.51264399999999998858    0.0006313394361877377    obsgroup
obs216   0.51697700000000001985    0.0006313394361877377    obsgroup
obs217   0.52045699999999994745    0.0006313394361877377    obsgroup
obs218   0.52393999999999996131    0.0006313394361877377    obsgroup
obs219   0.52827000000000001734    0.0006313394361877377    obsgroup
obs220   0.53517599999999998506    0.0006313394361877377    obsgroup
obs221   0.53865700000000005243    0.0006313394361877377    obsgroup
obs222   0.54386699999999998933    0.0006313394361877377    obsgroup
obs223   0.54820699999999999985    0.0006313394361877377    obsgroup
obs224   0.53528500000000001080    0.0006313394361877377    obsgroup
obs225   0.53357299999999996398    0.0006313394361877377    obsgroup
obs226   0.54393800000000003259    0.0006313394361877377    obsgroup
obs227   0.55170300000000005447    0.0006313394361877377    obsgroup
obs228   0.55432700000000001417    0.0006313394361877377    obsgroup
obs229   0.55781400000000003203    0.0006313394361877377    obsgroup
obs230   0.56302200000000002245    0.0006313394361877377    obsgroup
obs231   0.56823299999999998811    0.0006313394361877377    obsgroup
obs232   0.57345299999999999052    0.0006313394361877377    obsgroup
obs233   0.57952899999999996083    0.0006313394361877377    obsgroup
obs234   0.58388700000000004486    0.0006313394361877377    obsgroup
obs235   0.58996700000000001918    0.0006313394361877377    obsgroup
obs236   0.59433100000000005370    0.0006313394361877377    obsgroup
obs237   0.59869300000000003070    0.0006313394361877377    obsgroup
obs238   0.60304500000000005322    0.0006313394361877377    obsgroup
obs239   0.60740300000000002623    0.0006313394361877377    obsgroup
obs240   0.61175500000000004874    0.0006313394361877377    obsgroup
obs241   0.61523200000000000109    0.0006313394361877377    obsgroup
obs242   0.60575599999999996115    0.0006313394361877377    obsgroup
obs243   0.61268699999999998163    0.0006313394361877377    obsgroup
obs244   0.60837699999999994560    0.0006313394361877377    obsgroup
obs245   0.61960300000000001486    0.0006313394361877377    obsgroup
obs246   0.62566999999999994841    0.0006313394361877377    obsgroup
obs247   0.62916000000000005254    0.0006313394361877377    obsgroup
obs248   0.63438300000000003021    0.0006313394361877377    obsgroup
obs249   0.63873800000000002797    0.0006313394361877377    obsgroup
obs250   0.64394899999999999363    0.0006313394361877377    obsgroup
obs251   0.64742900000000003224    0.0006313394361877377    obsgroup
obs252   0.65176500000000003876    0.0006313394361877377    obsgroup
obs253   0.65612000000000003652    0.0006313394361877377    obsgroup
obs254   0.66046300000000002228    0.0006313394361877377    obsgroup
obs255   0.66220900000000004759    0.0006313394361877377    obsgroup
obs256   0.66569599999999995443    0.0006313394361877377    obsgroup
obs257   0.67176599999999997426    0.0006313394361877377    obsgroup
obs258   0.67611100000000001753    0.0006313394361877377    obsgroup
obs259   0.67700499999999996792    0.0006313394361877377    obsgroup
obs260   0.68221299999999995833    0.0006313394361877377    obsgroup
obs261   0.68570299999999995144    0.0006313394361877377    obsgroup
obs262   0.69005799999999994920    0.0006313394361877377    obsgroup
obs263   0.69441299999999994697    0.0006313394361877377    obsgroup
obs264   0.69963399999999997814    0.0006313394361877377    obsgroup
obs265   0.69448699999999996546    0.0006313394361877377    obsgroup
obs266   0.68673700000000004184    0.0006313394361877377    obsgroup
obs267   0.69021399999999999419    0.0006313394361877377    obsgroup
obs268   0.69368499999999999606    0.0006313394361877377    obsgroup
obs269   0.69111800000000001010    0.0006313394361877377    obsgroup
obs270   0.70922499999999999432    0.0006313394361877377    obsgroup
obs271   0.70321599999999995223    0.0006313394361877377    obsgroup
obs272   0.70497200000000004305    0.0006313394361877377    obsgroup
obs273   0.70846200000000003616    0.0006313394361877377    obsgroup
obs274   0.71365400000000001057    0.0006313394361877377    obsgroup
obs275   0.72314599999999995550    0.0006313394361877377    obsgroup
obs276   0.72230899999999997885    0.0006313394361877377    obsgroup
obs277   0.72664899999999998936    0.0006313394361877377    obsgroup
obs278   0.73097800000000001663    0.0006313394361877377    obsgroup
obs279   0.73445899999999997299    0.0006313394361877377    obsgroup
obs280   0.72238899999999994783    0.0006313394361877377    obsgroup
obs281   0.72415499999999999314    0.0006313394361877377    obsgroup
obs282   0.72677999999999998160    0.0006313394361877377    obsgroup
obs283   0.72851999999999994539    0.0006313394361877377    obsgroup
obs284   0.73801200000000000134    0.0006313394361877377    obsgroup
obs285   0.72768299999999996874    0.0006313394361877377    obsgroup
obs286   0.73029200000000005222    0.0006313394361877377    obsgroup
obs287   0.73977800000000004665    0.0006313394361877377    obsgroup
obs288   0.74324500000000004452    0.0006313394361877377    obsgroup
obs289   0.73462799999999994771    0.0006313394361877377    obsgroup
obs290   0.74584399999999995146    0.0006313394361877377    obsgroup
obs291   0.74759100000000000552    0.0006313394361877377    obsgroup
obs292   0.73897999999999997023    0.0006313394361877377    obsgroup
obs293   0.73900799999999999823    0.0006313394361877377    obsgroup
obs294   0.76145099999999998897    0.0006313394361877377    obsgroup
obs295   0.74334800000000000875    0.0006313394361877377    obsgroup
obs296   0.76841499999999995918    0.0006313394361877377    obsgroup
obs297   0.75117699999999998361    0.0006313394361877377    obsgroup
obs298   0.75032100000000001572    0.0006313394361877377    obsgroup
obs299   0.76239999999999996660    0.0006313394361877377    obsgroup
obs300   0.76501099999999999657    0.0006313394361877377    obsgroup
obs301   0.76936000000000004384    0.0006313394361877377    obsgroup
obs302   0.77198500000000003229    0.0006313394361877377    obsgroup
obs303   0.77375700000000002809    0.0006313394361877377    obsgroup
obs304   0.77810599999999996434    0.0006313394361877377    obsgroup
obs305   0.78245799999999998686    0.0006313394361877377    obsgroup
obs306   0.77557699999999996088    0.0006313394361877377    obsgroup
obs307   0.78163099999999996470    0.0006313394361877377    obsgroup
obs308   0.78767500000000001403    0.0006313394361877377    obsgroup
obs309   0.79115800000000002790    0.0006313394361877377    obsgroup
obs310   0.79377600000000003710    0.0006313394361877377    obsgroup
obs311   0.79552299999999998015    0.0006313394361877377    obsgroup
obs312   0.79295599999999999419    0.0006313394361877377    obsgroup
obs313   0.79642699999999999605    0.0006313394361877377    obsgroup
obs314   0.79990399999999994840    0.0006313394361877377    obsgroup
obs315   0.80251899999999998236    0.0006313394361877377    obsgroup
obs316   0.80513699999999999157    0.0006313394361877377    obsgroup
obs317   0.80774900000000005029    0.0006313394361877377    obsgroup
obs318   0.80431900000000000617    0.0006313394361877377    obsgroup
obs319   0.80433500000000002217    0.0006313394361877377    obsgroup
* model command line
./trial.sh
* model input/output
input.tpl  input
trial.ins wallula_output_processed.txt
* prior information